/*--------------------------------*- C++ -*----------------------------------*\
| =========                 |                                                 |
| \\      /  F ield         | OpenFOAM: The Open Source CFD Toolbox           |
|  \\    /   O peration     | Version:  2.0.0                                 |
|   \\  /    A nd           | Web:      www.OpenFOAM.com                      |
|    \\/     M anipulation  |                                                 |
\*---------------------------------------------------------------------------*/
FoamFile
{
    version     2.0;
    format      ascii;
    class       polyBoundaryMesh;
    location    "constant/polyMesh";
    object      boundary;
}
// * * * * * * * * * * * * * * * * * * * * * * * * * * * * * * * * * * * * * //

4
(
    stationaryWalls
    {
        type            wall;
        nFaces          392;
        startFace       28212;
    }
    victimWall
    {
        type            wall;
        nFaces          28544;
        startFace       28604;
    }
    atmosphere
    {
        type            patch;
        nFaces          240;
        startFace       57148;
    }
    defaultFaces
    {
        type            empty;
        nFaces          32;
        startFace       57388;
    }
)

// ************************************************************************* //
