/*--------------------------------*- C++ -*----------------------------------*\
| =========                 |                                                 |
| \\      /  F ield         | OpenFOAM: The Open Source CFD Toolbox           |
|  \\    /   O peration     | Version:  2.0.0                                 |
|   \\  /    A nd           | Web:      www.OpenFOAM.com                      |
|    \\/     M anipulation  |                                                 |
\*---------------------------------------------------------------------------*/
FoamFile
{
    version     2.0;
    format      ascii;
    class       polyBoundaryMesh;
    location    "constant/polyMesh";
    object      boundary;
}
// * * * * * * * * * * * * * * * * * * * * * * * * * * * * * * * * * * * * * //

4
(
    stationaryWalls
    {
        type            wall;
        nFaces          346;
        startFace       24565;
    }
    frontBack
    {
        type            symmetryPlane;
        nFaces          24880;
        startFace       24911;
    }
    atmosphere
    {
        type            patch;
        nFaces          250;
        startFace       49791;
    }
    floatingObject
    {
        type            wall;
        nFaces          34;
        startFace       50041;
    }
)

// ************************************************************************* //
