/*--------------------------------*- C++ -*----------------------------------*\
| =========                 |                                                 |
| \\      /  F ield         | OpenFOAM: The Open Source CFD Toolbox           |
|  \\    /   O peration     | Version:  2.0.0                                 |
|   \\  /    A nd           | Web:      www.OpenFOAM.com                      |
|    \\/     M anipulation  |                                                 |
\*---------------------------------------------------------------------------*/
FoamFile
{
    version     2.0;
    format      ascii;
    class       polyBoundaryMesh;
    location    "constant/polyMesh";
    object      boundary;
}
// * * * * * * * * * * * * * * * * * * * * * * * * * * * * * * * * * * * * * //

4
(
    stationaryWalls
    {
        type            wall;
        nFaces          233;
        startFace       6912;
    }
    frontBack
    {
        type            symmetryPlane;
        nFaces          7140;
        startFace       7145;
    }
    atmosphere
    {
        type            patch;
        nFaces          200;
        startFace       14285;
    }
    floatingObject
    {
        type            wall;
        nFaces          23;
        startFace       14485;
    }
)

// ************************************************************************* //
