/*--------------------------------*- C++ -*----------------------------------*\
| =========                 |                                                 |
| \\      /  F ield         | OpenFOAM: The Open Source CFD Toolbox           |
|  \\    /   O peration     | Version:  2.0.x                                 |
|   \\  /    A nd           | Web:      www.OpenFOAM.com                      |
|    \\/     M anipulation  |                                                 |
\*---------------------------------------------------------------------------*/
FoamFile
{
    version     2.0;
    format      ascii;
    class       polyBoundaryMesh;
    location    "constant/polyMesh";
    object      boundary;
}
// * * * * * * * * * * * * * * * * * * * * * * * * * * * * * * * * * * * * * //

4
(
    stationaryWalls
    {
        type            wall;
        nFaces          370;
        startFace       27043;
    }
    frontBack
    {
        type            symmetryPlane;
        nFaces          27380;
        startFace       27413;
    }
    atmosphere
    {
        type            patch;
        nFaces          275;
        startFace       54793;
    }
    floatingObject
    {
        type            wall;
        nFaces          29;
        startFace       55068;
    }
)

// ************************************************************************* //
