/*--------------------------------*- C++ -*----------------------------------*\
| =========                 |                                                 |
| \\      /  F ield         | OpenFOAM: The Open Source CFD Toolbox           |
|  \\    /   O peration     | Version:  2.0.0                                 |
|   \\  /    A nd           | Web:      www.OpenFOAM.com                      |
|    \\/     M anipulation  |                                                 |
\*---------------------------------------------------------------------------*/
FoamFile
{
    version     2.0;
    format      ascii;
    class       polyBoundaryMesh;
    location    "constant/polyMesh";
    object      boundary;
}
// * * * * * * * * * * * * * * * * * * * * * * * * * * * * * * * * * * * * * //

4
(
    stationaryWalls
    {
        type            wall;
        nFaces          466;
        startFace       28104;
    }
    frontBack
    {
        type            symmetryPlane;
        nFaces          28560;
        startFace       28570;
    }
    atmosphere
    {
        type            patch;
        nFaces          400;
        startFace       57130;
    }
    floatingObject
    {
        type            wall;
        nFaces          46;
        startFace       57530;
    }
)

// ************************************************************************* //
