/*--------------------------------*- C++ -*----------------------------------*\
| =========                 |                                                 |
| \\      /  F ield         | OpenFOAM: The Open Source CFD Toolbox           |
|  \\    /   O peration     | Version:  2.0.0                                 |
|   \\  /    A nd           | Web:      www.OpenFOAM.com                      |
|    \\/     M anipulation  |                                                 |
\*---------------------------------------------------------------------------*/
FoamFile
{
    version     2.0;
    format      ascii;
    class       dictionary;
    location    "system";
    object      controlDict;
}
// * * * * * * * * * * * * * * * * * * * * * * * * * * * * * * * * * * * * * //

application     interDyMFoam;

startFrom       latestTime;

startTime       0;

stopAt          endTime;

endTime         8;

deltaT          0.01;

writeControl    adjustableRunTime;

writeInterval   0.03;

purgeWrite      0;

writeFormat     ascii;

writePrecision  12;

writeCompression uncompressed;

timeFormat      general;

timePrecision   6;

runTimeModifiable yes;

adjustTimeStep  yes;

maxCo           0.5;
maxAlphaCo      0.5;
maxDeltaT       0.01;

libs
(
    "libOpenFOAM.so"
    "libincompressibleRASModels.so"
    "libfvMotionSolvers.so"
    "libforces.so"
);

functions
{
  forces //name of folder
  {
    type forces;
    functionObjectLibs ("libforces.so"); // Lib to load
    patches (floatingObject); // change to your patch name
    pName p;
    Uname U;
    rhoName rhoInf;
    rhoInf 1000;
    CofR (0.16 0 0); // Origin for moment calculations
    outputControl timeStep;
    outputInterval 1;
  }
}


// ************************************************************************* //
