/*--------------------------------*- C++ -*----------------------------------*\
| =========                 |                                                 |
| \\      /  F ield         | OpenFOAM: The Open Source CFD Toolbox           |
|  \\    /   O peration     | Version:  2.0.0                                 |
|   \\  /    A nd           | Web:      www.OpenFOAM.com                      |
|    \\/     M anipulation  |                                                 |
\*---------------------------------------------------------------------------*/
FoamFile
{
    version     2.0;
    format      ascii;
    class       dictionary;
    object      motionProperties;
}
// * * * * * * * * * * * * * * * * * * * * * * * * * * * * * * * * * * * * * //

dynamicFvMesh     dynamicMotionSolverFvMesh;
motionSolverLibs  ("libfvMotionSolvers.so");
solver            displacementLaplacian;
diffusivity       uniform; //inverseDistance (floatingObject);

/*
dynamicFvMesh dynamicRefineFvMesh;

dynamicRefineFvMeshCoeffs
{
    refineInterval 1;
    field alpha1;
    lowerRefineLevel 0.001;
    upperRefineLevel 0.999;
    unrefineLevel 10;
    nBufferLayers 1;
    maxRefinement 2;
    maxCells 200000;
    correctFluxes
    (
        (
            phi
            U
        )
    );
    dumpLevel true;
}
*/

// ************************************************************************* //
